     192
 i =        0, time =        0.000, E =     -1104.8356301316
  O        11.9500430000        8.6624740000        1.2247490000
  H        12.5802700000        8.8187140000        0.4390200000
  H        12.4449880000        8.4086640000        2.0137320000
  O         8.1460240000        0.7439080000        8.4004100000
  H         7.9214600000        1.2929620000        7.6743290000
  H         8.2745690000       -0.2424950000        8.1156040000
  O         0.6090880000        0.9496820000       12.0258180000
  H         0.7722260000        0.4012960000       11.2410560000
  H         1.2465640000        0.5655610000       12.7131820000
  O         5.0519320000       11.5504850000        8.2825880000
  H         5.9018020000       11.9289240000        8.2170580000
  H         4.9986080000       10.9086420000        7.5326830000
  O         6.6394430000        3.7192780000        2.0162690000
  H         7.4442450000        3.7229410000        2.5925780000
  H         6.8916170000        3.0994690000        1.3350880000
  O         4.6649210000        1.8927270000       10.9522700000
  H         5.6648510000        1.8682640000       10.6891980000
  H         4.0849050000        1.9726620000       10.2249470000
  O         9.9367850000        4.1037980000        8.7163100000
  H        10.3252630000        3.2179800000        8.7339830000
  H        10.3530310000        4.5413140000        9.4253010000
  O        10.6734630000        6.6205240000        0.3307150000
  H        11.3404550000        7.3168500000        0.5456220000
  H        11.0284210000        6.0848750000       -0.3847090000
  O        10.3585680000       10.6216080000        9.8841710000
  H        10.2493730000       10.6867650000       10.8653520000
  H        10.4590530000        9.5988070000        9.7438290000
  O         6.5502630000        8.3081250000        6.9334950000
  H         6.1954680000        8.2607110000        6.0338680000
  H         7.4029310000        8.7978400000        7.0276880000
  O         9.1656040000        4.0590270000        3.9941950000
  H         8.8503860000        4.9289760000        4.1707310000
  H         9.8867190000        4.0512490000        3.3288780000
  O         1.6663940000        9.3810990000        5.8428360000
  H         1.0878440000        9.9237490000        6.4608080000
  H         2.6299210000        9.5964970000        5.8450240000
  O         4.1204580000       10.2312110000        5.6437640000
  H         4.7638300000        9.6828380000        5.1943050000
  H         4.1382670000       11.0785120000        5.1811030000
  O         1.8974420000       11.6292380000        1.7876720000
  H         1.1168910000       11.2241640000        2.2323070000
  H         2.4822280000       12.0440450000        2.5134870000
  O         0.0402990000        5.6392510000        4.6611160000
  H        -0.8376810000        5.5311370000        5.0539310000
  H         0.5700850000        4.8928120000        4.9279390000
  O         8.7159650000        1.8803650000        1.0998380000
  H         8.0038590000        1.9165310000        0.4662680000
  H         8.3112820000        1.8575230000        1.9682570000
  O         7.8312770000        2.6866260000        6.3827530000
  H         7.8124240000        3.5762250000        6.6175860000
  H         8.4590660000        2.6249480000        5.6321590000
  O         6.7305430000       10.2053930000        2.9557880000
  H         7.4432380000        9.9107180000        2.2579510000
  H         5.8993680000       10.3159730000        2.4044160000
  O         2.1128260000        7.1016960000        7.4290250000
  H         3.0577810000        7.3295000000        7.6867270000
  H         1.8616450000        7.8997090000        6.8908920000
  O         4.4912790000       10.0302930000        1.2368460000
  H         4.3257640000        9.4569400000        0.5177270000
  H         3.5413490000       10.2454320000        1.4551240000
  O         1.1463270000        1.9987880000        3.8276600000
  H         0.4379390000        2.3078070000        4.4420270000
  H         1.8132370000        2.7399030000        3.7384290000
  O         6.7028480000        4.9360200000       10.4018220000
  H         7.1266780000        5.8064150000       10.4961020000
  H         5.6804550000        5.0941600000       10.5265560000
  O         2.1819060000        0.3900320000        5.6973800000
  H         3.1006550000        0.6370990000        5.8957130000
  H         1.8599750000        1.0691500000        5.0192980000
  O        11.2852780000        4.8779450000        2.2593220000
  H        11.0000600000        5.5273620000        1.5595340000
  H        11.8847920000        5.3479400000        2.8594800000
  O         3.5579610000       10.3122960000       10.4967090000
  H         3.9485970000       10.8228250000        9.7727460000
  H         3.8369000000        9.4163500000       10.1482830000
  O        10.7866630000       12.1244070000        0.5241670000
  H        11.6120960000       12.6288420000        0.2791430000
  H        10.1335220000       12.8462280000        0.5523250000
  O        11.1643790000        3.0829300000        5.8889720000
  H        10.7377980000        2.7943950000        6.7690140000
  H        10.4269110000        3.5586760000        5.5168760000
  O         5.7092110000        8.0531190000        4.3469720000
  H         4.9625170000        7.6628630000        3.8630130000
  H         6.0825600000        8.7127160000        3.6983510000
  O        10.2094290000        7.7625660000        8.9447480000
  H         9.4730550000        7.5346970000        9.5550090000
  H         9.9957840000        7.4567440000        8.0367900000
  O         4.8400140000        4.2186660000        5.8160660000
  H         5.2201420000        3.3239850000        6.0161880000
  H         5.5316840000        4.8407610000        6.0489510000
  O         3.8702150000        5.4037030000       10.3464000000
  H         3.2898080000        4.6037550000       10.1573470000
  H         3.5431260000        5.8211930000       11.1287920000
  O         8.3995220000       10.4614330000        7.9944270000
  H         9.2933470000       10.1852680000        7.5465200000
  H         8.5304400000       10.2763780000        8.9523650000
  O         0.3430270000        7.1861100000        9.5753220000
  H         0.9477630000        7.1420540000        8.7626880000
  H        -0.5268640000        7.2758850000        9.0944530000
  O         7.9890320000       11.8284900000       11.5139880000
  H         7.3010100000       12.4387750000       11.8918960000
  H         8.2545190000       12.2556790000       10.6590800000
  O        10.4193860000        9.9747550000        6.1250480000
  H        11.2600090000       10.2889820000        6.4575760000
  H        10.1403050000       10.7769910000        5.6001160000
  O         5.8114660000        0.2523420000        0.5234490000
  H         5.5655100000       -0.6845690000        0.5538580000
  H         4.9983390000        0.5177280000        0.0445210000
  O        10.3800770000        0.2316420000        5.1252240000
  H        10.7706740000        1.1344050000        5.1583950000
  H        10.7764760000       -0.1071990000        4.3160280000
  O         9.8370210000        6.1745520000        6.6958060000
  H         9.1272330000        6.3398180000        6.0387350000
  H         9.8053800000        5.3222750000        7.1297130000
  O         0.8695440000        8.1882500000        3.6540370000
  H         0.6240000000        7.3483800000        4.0741100000
  H         1.2543560000        8.7387300000        4.4435020000
  O         8.0777000000        7.0864990000       10.9437990000
  H         7.5096910000        7.9077040000       11.0544520000
  H         8.5988900000        7.1160340000       11.7849760000
  O         6.6517300000        9.6281450000       10.7845740000
  H         5.8712250000       10.0506790000       10.4501500000
  H         7.0830250000       10.2691190000       11.3532720000
  O         1.9999110000        4.2651410000        6.8160770000
  H         2.9373800000        4.1374070000        6.5277170000
  H         2.0749640000        5.2019370000        7.0482790000
  O         7.4413070000        2.2450550000       10.8887480000
  H         7.9316850000        1.8883790000       10.1305720000
  H         7.3018100000        3.1769540000       10.6892550000
  O         7.5974210000        0.4000940000        3.9624720000
  H         8.4175990000        0.2754960000        4.4970290000
  H         7.3619950000       -0.5438320000        3.6339190000
  O         8.3013360000        6.7069950000        4.4894760000
  H         7.3335740000        6.9162930000        4.4778880000
  H         8.8953010000        7.4542540000        4.1581230000
  O         4.0143380000        0.9197470000        2.6060710000
  H         4.7233340000        0.8826150000        1.9239750000
  H         3.4666860000        1.7311530000        2.4592240000
  O        11.5236400000       11.1665300000        2.9539530000
  H        11.0201890000       11.3833350000        2.1265470000
  H        11.7427460000       10.2602790000        2.9290920000
  O         9.8792730000        8.7164440000        3.9279930000
  H        10.2844780000        9.1429120000        4.7841760000
  H         9.5771500000        9.4933820000        3.4327950000
  O         3.5347790000        3.7457810000        0.8484300000
  H         4.0009030000        3.6533300000       -0.0281830000
  H         2.5682270000        3.8371740000        0.5751140000
  O         0.9734560000       11.5178710000        9.8324050000
  H         0.1446240000       10.9456040000        9.8442760000
  H         1.8156710000       10.9239380000       10.0300500000
  O         8.9204470000        9.2928540000        1.1458050000
  H         9.3014680000        8.3516120000        1.0683050000
  H         9.7381470000        9.8294300000        1.0857380000
  O         6.9097900000        5.2509830000        7.4241650000
  H         6.8656610000        5.1098710000        8.4099400000
  H         6.7575840000        6.1988180000        7.2843950000
  O         1.2555620000        8.8212140000       11.5651510000
  H         1.1573230000        8.4630930000       10.6025520000
  H         2.2020960000        8.8034880000       11.7483380000
  O         6.0703980000        6.3699910000        0.9597430000
  H         6.7373840000        5.9058390000        0.3969180000
  H         5.8184620000        5.7058730000        1.6236760000
  O         0.7284830000        3.6770790000        0.1994970000
  H         0.1498720000        3.9637260000        0.9418570000
  H         0.6956580000        2.6947720000        0.0599050000
  O        11.5199800000        5.0705500000       10.6834480000
  H        11.9118950000        5.8634140000       10.2749280000
  H        12.3085020000        4.5738560000       11.0032280000
  O         3.2349130000        4.1062770000        3.6351350000
  H         3.9580640000        4.1820770000        4.3263990000
  H         3.8305320000        3.9637350000        2.8326040000
  O         1.9900500000        3.3661020000        9.3624570000
  H         1.9016440000        3.5633830000        8.4226720000
  H         1.3493720000        2.6758610000        9.5753340000
  O         4.3325710000        7.8575580000        8.8716160000
  H         4.4486840000        7.1353500000        9.4801660000
  H         5.1273390000        7.9495360000        8.3339700000
  O         3.3058410000        6.9011880000        3.0710910000
  H         3.1719740000        6.0461000000        3.5206400000
  H         2.4928860000        7.4563140000        3.3503520000
  O         4.9511830000        1.0539080000        5.2296940000
  H         5.8924130000        1.0958230000        5.2656040000
  H         4.5962090000        1.0622640000        4.3109780000
  O         0.3293580000       11.3803390000        7.1324730000
  H         0.5899290000       11.4481710000        8.0927390000
  H         1.0286020000       11.9524450000        6.7007710000
  O         3.6718290000        7.4074610000        0.0003210000
  H         4.6153510000        7.1172440000        0.1399830000
  H         3.4131710000        7.2049650000        0.9006820000
  O        10.8850310000        1.3251520000        8.2994430000
  H        11.5134600000        0.9073590000        7.6954910000
  H        10.1098890000        0.7222760000        8.3028800000
